*KEYWORD
$* LS-DYNA Keyword file: LSTC LS-PRE/POST Ver 1.0(Beta)- 31OCT2002(1553)
$* Total Number of Nodes  =     1725,Largest node ID  = 1001000
$* Total Number of Shells =      180,Largest Shell ID = 1743
$* Total Number of Solids =      432,Largest Solid ID = 1359
$* Total Number of Parts  =        4,Largest Part ID  = 101
$* Total Number of Mats   =        4 Largest Mat ID   = 6
*TITLE
$ curve # 1 for foam property
$ 1. when y-scale is 100. - contact OK
$ 2. when y-scale is 1.0  - negative volume (element compressed to pancake)
test of material 57 - foam                                                      
*CONTROL_BULK_VISCOSITY
$*      q1        q2      type      
  1.500000  0.060000
*CONTROL_CONTACT
$*  slsfac    rwpnal    islchk    shlthk    penopt    thkchg     orien    enmass
  0.100000  1.000000         2         0         1         0         1
$*  usrstr    usrfrc     nsbcs    interm     xpene     ssthk      ecdt   tiedprj
         0         0         0         0       0.0
*CONTROL_CPU
$*  cputim    
       0.0
*CONTROL_DAMPING
$*  nrcyck     drtol    drfctr    drterm    tssfdr    irelal     edttl    idrflg
         0       0.0       0.0       0.0       0.0         0       0.0
*CONTROL_ENERGY
$*    hgen      rwen    slnten     rylen     
         2         2         2         2
*CONTROL_HOURGLASS
$*     ihq        qh        
         5  0.100000
*CONTROL_OUTPUT
$*   npopt    neecho    nrefup    iaccop     opifs    ipnint    ikedit    iflush
         0         0         1         1       0.0         1
*CONTROL_SHELL
$*  wrpang     esort     irnxx    istupd    theory       bwc     miter      proj
       0.0         1         0         0         2
*CONTROL_SPH
$*    ncbs     boxid        dt       dim    memory      form     start      maxv
         1         0       0.0         0         0         0       0.0       0.0
*CONTROL_STRUCTURED
*CONTROL_TERMINATION
$*  endtim    endcyc     dtmin    endeng    endmas    
  10.00000         0       0.0       0.0       0.0
*CONTROL_TIMESTEP
$*  dtinit    tssfac      isdo    tslimt     dt2ms      lctm     erode     ms1st
       0.0  0.500000         0       0.0       0.0
*DATABASE_DEFORC
  0.200000
*DATABASE_ELOUT
  0.100000
*DATABASE_GLSTAT
  0.200000
*DATABASE_MATSUM
  0.200000
*DATABASE_NODOUT
  0.100000
*DATABASE_RBDOUT
  0.100000
*DATABASE_RCFORC
  0.100000
*DATABASE_BINARY_D3PLOT
  1.000000
*DATABASE_BINARY_D3THDT
  0.100000
*DATABASE_BINARY_RUNRSF
     10000
*DATABASE_EXTENT_BINARY
         0         0         0         1
         0         0         0         0         0         0         0
*DATABASE_HISTORY_SOLID
       928
*DATABASE_HISTORY_NODE
         1
*CONTACT_AUTOMATIC_NODES_TO_SURFACE_TITLE
$ INTERFACE NAME: 2          $$$
$       101         5         4         3         0         0         0         0
$  .000E+00  .000E+00  .000E+00  .000E+00  .000E+00         0  .000E+00  .000E+00
$ 10.000000 0.0100000  .000E+00  .000E+00  .000E+00  .000E+00
$         1 0.1000000                                                 3
$         1
$         4         5
$*     cidtitle                                                                 
         1                                                                      
$*    ssid      msid     sstyp     mstyp    sboxid    mboxid       spr       mpr
       101         4         4         3
$*      fs        fd        dc        vc       vdc    penchk        bt        dt
       0.0       0.0       0.0       0.0       0.0         0       0.0       0.0
$*     sfs       sfm       sst       mst      sfst      sfmt       fsf       vsf
  10.00000  0.010000       0.0       0.0       0.0       0.0       0.0       0.0
*SET_NODE_LIST_GENERATE
       101       0.0       0.0       0.0       0.0
   1000001   1001000
*DEFINE_CURVE
$        1         0  .000E+00 1.000E+02  .000E+00  .000E+00
$        1         0  .000E+00 1.000E+01  .000E+00  .000E+00
         1         0       0.0       0.0       0.0       0.0
                 0.0                 0.0
          0.01000000       3.1249999e-06
          0.02000000       6.2499998e-06
          0.04000000       7.4999998e-06
          0.06000000       9.9999997e-06
          0.08000000       1.1500000e-05
          0.10000000       1.2500000e-05
          0.12000000       1.3000000e-05
          0.14000000       1.4000000e-05
          0.16000000       1.4000000e-05
          0.18000001       1.5000000e-05
          0.20000000       1.6000000e-05
          0.22000000       1.6000000e-05
          0.23999999       1.7000000e-05
          0.25999999       1.7000000e-05
          0.28000000       1.7000000e-05
          0.30000001       1.7000000e-05
          0.31999999       1.8000001e-05
          0.34000000       1.8750001e-05
$ ... 18 like lines cut
*DEFINE_CURVE
         2         0       0.0  100.0000       0.0       0.0
                 0.0                 0.0
          1.00000000          0.00100000
*ELEMENT_SOLID
     928       4     428     637     710     636     750     806     879     805
     929       4     637     600     683     710     806     769     852     879
     930       4     710     683     617     675     879     852     786     844
     931       4     636     710     675     594     805     879     844     763
     932       4     600     640     711     683     769     809     880     852
     933       4     640     429     639     711     809     751     808     880
     934       4     711     639     596     677     880     808     765     846
     935       4     683     711     677     617     852     880     846     786
     936       4     617     677     712     674     786     846     881     843
     937       4     677     596     630     712     846     765     799     881
     938       4     712     630     425     628     881     799     747     797
     939       4     674     712     628     593     843     881     797     762
     940       4     594     675     713     627     763     844     882     796
     941       4     675     617     674     713     844     786     843     882
     942       4     713     674     593     626     882     843     762     795
     943       4     627     713     626     424     796     882     795     746
     944       4     429     641     714     639     751     810     883     808
     945       4     641     602     686     714     810     771     855     883
     946       4     714     686     618     678     883     855     787     847
     947       4     639     714     678     596     808     883     847     765
$ ... 412 like lines cut
*ELEMENT_SHELL
     244       5       1       2       9       8
     247       5       2       3      10       9
     249       5       3       4      11      10
     251       5       4       5      12      11
     253       5       5       6      13      12
     255       5       6       7      14      13
     258       5       8       9      16      15
     260       5       9      10      17      16
     261       5      10      11      18      17
     262       5      11      12      19      18
     263       5      12      13      20      19
     264       5      13      14      21      20
     266       5      15      16      23      22
     268       5      16      17      24      23
     269       5      17      18      25      24
     270       5      18      19      26      25
     271       5      19      20      27      26
     272       5      20      21      28      27
     274       5      22      23      30      29
     276       5      23      24      31      30
$ ... 160 like lines cut
*ELEMENT_SPH
 1000001     101   2.2640880e-04
 1000002     101   2.2640880e-04
 1000003     101   2.2640880e-04
 1000004     101   2.2640880e-04
 1000005     101   2.2640880e-04
 1000006     101   2.2640880e-04
 1000007     101   2.2640880e-04
 1000008     101   2.2640880e-04
 1000009     101   2.2640880e-04
 1000010     101   2.2640880e-04
 1000011     101   2.2640880e-04
 1000012     101   2.2640880e-04
 1000013     101   2.2640880e-04
 1000014     101   2.2640880e-04
 1000015     101   2.2640880e-04
 1000016     101   2.2640880e-04
 1000017     101   2.2640880e-04
 1000018     101   2.2640880e-04
 1000019     101   2.2640880e-04
 1000020     101   2.2640880e-04
$ ... 980 like lines cut
*ELEMENT_MASS
       1      25     20.00000000
       2     621     20.00000000
*NODE
       1    -50.79990005    -50.79990005             0.0
       2    -33.86669922    -50.79990005             0.0
       3    -16.93320084    -50.79990005             0.0
       4             0.0    -50.79990005             0.0
       5     16.93329048    -50.79990005             0.0
       6     33.86669922    -50.79990005             0.0
       7     50.79999161    -50.79990005             0.0
       8    -50.79990005    -33.86669922             0.0
       9    -33.86669922    -33.86669922             0.0
      10    -16.93320084    -33.86669922             0.0
      11             0.0    -33.86669922             0.0
      12     16.93329048    -33.86669922             0.0
      13     33.86669922    -33.86669922             0.0
      14     50.79999161    -33.86669922             0.0
      15    -50.79990005    -16.93320084             0.0
      16    -33.86669922    -16.93320084             0.0
      17    -16.93320084    -16.93320084             0.0
      18             0.0    -16.93320084             0.0
      19     16.93329048    -16.93320084             0.0
      20     33.86669922    -16.93320084             0.0
$ ... 1705 like lines cut
*INITIAL_VELOCITY_NODE
         1       0.0       0.0       0.0       0.0       0.0       0.0
         2       0.0       0.0       0.0       0.0       0.0       0.0
         3       0.0       0.0       0.0       0.0       0.0       0.0
         4       0.0       0.0       0.0       0.0       0.0       0.0
         5       0.0       0.0       0.0       0.0       0.0       0.0
         6       0.0       0.0       0.0       0.0       0.0       0.0
         7       0.0       0.0       0.0       0.0       0.0       0.0
         8       0.0       0.0       0.0       0.0       0.0       0.0
         9       0.0       0.0       0.0       0.0       0.0       0.0
        10       0.0       0.0       0.0       0.0       0.0       0.0
        11       0.0       0.0       0.0       0.0       0.0       0.0
        12       0.0       0.0       0.0       0.0       0.0       0.0
        13       0.0       0.0       0.0       0.0       0.0       0.0
        14       0.0       0.0       0.0       0.0       0.0       0.0
        15       0.0       0.0       0.0       0.0       0.0       0.0
        16       0.0       0.0       0.0       0.0       0.0       0.0
        17       0.0       0.0       0.0       0.0       0.0       0.0
        18       0.0       0.0       0.0       0.0       0.0       0.0
        19       0.0       0.0       0.0       0.0       0.0       0.0
        20       0.0       0.0       0.0       0.0       0.0       0.0
$ ... 1705 like lines cut
*CONSTRAINED_RIGID_BODIES
$ INTERFACE NAME: 2          $$$
$       101         5         4         3         0         0         0         0
$  .000E+00  .000E+00  .000E+00  .000E+00  .000E+00         0  .000E+00  .000E+00
$ 10.000000 0.0100000  .000E+00  .000E+00  .000E+00  .000E+00
$         1 0.1000000                                                 3
$         1
$         4         5
         4         6
*PART
$* title                                                                        
PSOLID   :       1        CHEXA :large.fm                                       
$*     pid     secid       mid     eosid      hgid      grav    adpopt      tmid
         4         4         4
*SECTION_SOLID
$*   secid    elform       aet       
         4
*MAT_RIGID
$         1 2.400E-07 2.500E-01 0.0000000 1.000E+00 4.000E-02  .000E+00
$*     mid        ro         e        pr         n    couple         malias     
         41.0000e-07  207.0000  0.280000       0.0       0.0       0.0          
$*     cmo      con1      con2      
       0.0       0.0       0.0
$lco or a1        a2        a3        v1        v2        v3        
       0.0       0.0       0.0       0.0       0.0       0.0
*PART
$* title                                                                        
PSHELL   :      61        CQUAD4:small.rg                                       
$*     pid     secid       mid     eosid      hgid      grav    adpopt      tmid
         5         5         5
*SECTION_SHELL
$*   secid    elform      shrf       nip     propt   qr/irid     icomp     setyp
         5         2       0.0         0         0       0.0
$*      t1        t2        t3        t4      nloc     marea     
  1.000000  1.000000  1.000000  1.000000         0       0.0
*MAT_RIGID
$*     mid        ro         e        pr         n    couple         malias     
         51.0000e-07  207.0000  0.280000       0.0       0.0       0.0          
$*     cmo      con1      con2      
       0.0       0.0       0.0
$lco or a1        a2        a3        v1        v2        v3        
       0.0       0.0       0.0       0.0       0.0       0.0
*PART
$* title                                                                        
PSHELL   :      61        CQUAD4:large.rg                                       
$*     pid     secid       mid     eosid      hgid      grav    adpopt      tmid
         6         6         6
*SECTION_SHELL
$1.000E-04 1.000E-04 1.000E-04 1.000E-04  .000E+00
$*   secid    elform      shrf       nip     propt   qr/irid     icomp     setyp
         6         2       0.0         0         0       0.0
$*      t1        t2        t3        t4      nloc     marea     
1.0000e-041.0000e-041.0000e-041.0000e-04         0       0.0
*MAT_RIGID
$*     mid        ro         e        pr         n    couple         malias     
         61.0000e-07  207.0000  0.280000       0.0       0.0       0.0          
$*     cmo      con1      con2      
       0.0       0.0       0.0
$lco or a1        a2        a3        v1        v2        v3        
       0.0       0.0       0.0       0.0       0.0       0.0
*PART
$* title                                                                        
                                                                                
$*     pid     secid       mid     eosid      hgid      grav    adpopt      tmid
       101       101         1
*SECTION_SPH
$*   secid      cslh      hmin      hmax    sphini     death     start     
       101  1.200000       0.0       0.0       0.0       0.0       0.0
*MAT_LOW_DENSITY_FOAM
$*     mid        ro         e      lcid        tc        hu      beta      damp
         12.4000e-07  0.250000         1  0.040000  0.500000       0.0       0.0
$*   shape      fail    bvflag        ed     beta1      kcon       ref       
       0.0       0.0       0.0       0.0       0.0       0.0       0.0
*RIGIDWALL_PLANAR
       101         0         0       0.0
       0.0       0.0       0.0       0.0       0.0  1.000000       0.0       0.0
*END
